
     RDKit          2D

 23 26  0  0  0  0  0  0  0  0999 V2000
    5.5792   -5.0292    0.0000 C   0  0  0  0  0  0  0  0  0  0  0  0
    4.8625   -5.0417    0.0000 N   0  0  0  0  0  0  0  0  0  0  0  0
    6.0042   -5.5917    0.0000 C   0  0  0  0  0  0  0  0  0  0  0  0
    5.2250   -6.5917    0.0000 N   0  0  0  0  0  0  0  0  0  0  0  0
    5.9167   -4.4125    0.0000 N   0  0  0  0  0  0  0  0  0  0  0  0
    4.4125   -5.6000    0.0000 C   0  0  0  0  0  0  0  0  0  0  0  0
    5.8625   -6.2792    0.0000 C   0  0  0  0  0  0  0  0  0  0  0  0
    4.5917   -6.2917    0.0000 C   0  0  0  0  0  0  0  0  0  0  0  0
    3.7292   -5.4167    0.0000 C   0  0  0  0  0  0  0  0  0  0  0  0
    6.5750   -3.1542    0.0000 N   0  0  0  0  0  0  0  0  0  0  0  0
    6.6167   -4.3792    0.0000 C   0  0  0  0  0  0  0  0  0  0  0  0
    5.5375   -3.8125    0.0000 C   0  0  0  0  0  0  0  0  0  0  0  0
    4.0917   -6.8000    0.0000 C   0  0  0  0  0  0  0  0  0  0  0  0
    3.2167   -5.9042    0.0000 C   0  0  0  0  0  0  0  0  0  0  0  0
    6.9542   -3.7625    0.0000 C   0  0  0  0  0  0  0  0  0  0  0  0
    5.8667   -3.1792    0.0000 C   0  0  0  0  0  0  0  0  0  0  0  0
    6.6792   -5.3542    0.0000 C   0  0  0  0  0  0  0  0  0  0  0  0
    3.4042   -6.6042    0.0000 C   0  0  0  0  0  0  0  0  0  0  0  0
    2.5375   -5.7042    0.0000 Cl  0  0  0  0  0  0  0  0  0  0  0  0
    6.3917   -6.7417    0.0000 C   0  0  0  0  0  0  0  0  0  0  0  0
    6.9042   -2.5292    0.0000 C   0  0  0  0  0  0  0  0  0  0  0  0
    7.2167   -5.8375    0.0000 C   0  0  0  0  0  0  0  0  0  0  0  0
    7.0750   -6.5292    0.0000 C   0  0  0  0  0  0  0  0  0  0  0  0
  2  1  2  0
  3  1  1  0
  4  7  1  0
  5  1  1  0
  6  2  1  0
  7  3  2  0
  8  6  2  0
  9  6  1  0
 10 16  1  0
 11  5  1  0
 12  5  1  0
 13  8  1  0
 14  9  2  0
 15 11  1  0
 16 12  1  0
 17  3  1  0
 18 14  1  0
 19 14  1  0
 20  7  1  0
 21 10  1  0
 22 17  2  0
 23 22  1  0
 10 15  1  0
  8  4  1  0
 23 20  2  0
 18 13  2  0
M  END
> <chembl_id>
CHEMBL42

> <chembl_pref_name>
CLOZAPINE

$$$$

     RDKit          2D

 24 27  0  0  0  0  0  0  0  0999 V2000
    2.9167   -0.8625    0.0000 N   0  0  0  0  0  0  0  0  0  0  0  0
    4.2167   -0.5792    0.0000 C   0  0  0  0  0  0  0  0  0  0  0  0
    3.6667   -1.1917    0.0000 C   0  0  0  0  0  0  0  0  0  0  0  0
    6.0500   -2.9250    0.0000 N   0  0  0  0  0  0  0  0  0  0  0  0
    3.0000   -0.0417    0.0000 C   0  0  0  0  0  0  0  0  0  0  0  0
    3.8042    0.1333    0.0000 C   0  0  0  0  0  0  0  0  0  0  0  0
    5.3792   -1.4167    0.0000 N   0  0  0  0  0  0  0  0  0  0  0  0
    5.0417   -0.6667    0.0000 C   0  0  0  0  0  0  0  0  0  0  0  0
    2.2042   -1.2792    0.0000 C   0  0  0  0  0  0  0  0  0  0  0  0
    5.2292   -2.8375    0.0000 C   0  0  0  0  0  0  0  0  0  0  0  0
    6.5375   -2.2542    0.0000 C   0  0  0  0  0  0  0  0  0  0  0  0
    6.3875   -3.6792    0.0000 C   0  0  0  0  0  0  0  0  0  0  0  0
    6.2000   -1.5000    0.0000 C   0  0  0  0  0  0  0  0  0  0  0  0
    4.8917   -2.0875    0.0000 C   0  0  0  0  0  0  0  0  0  0  0  0
    2.2042   -2.1042    0.0000 C   0  0  0  0  0  0  0  0  0  0  0  0
    1.4917   -0.8667    0.0000 C   0  0  0  0  0  0  0  0  0  0  0  0
    5.9000   -4.3417    0.0000 C   0  0  0  0  0  0  0  0  0  0  0  0
    7.2042   -3.7625    0.0000 C   0  0  0  0  0  0  0  0  0  0  0  0
    1.4917   -2.5167    0.0000 C   0  0  0  0  0  0  0  0  0  0  0  0
    6.2292   -5.1000    0.0000 C   0  0  0  0  0  0  0  0  0  0  0  0
    7.5417   -4.5042    0.0000 C   0  0  0  0  0  0  0  0  0  0  0  0
    0.7792   -1.2792    0.0000 C   0  0  0  0  0  0  0  0  0  0  0  0
    0.7792   -2.1042    0.0000 C   0  0  0  0  0  0  0  0  0  0  0  0
    7.0542   -5.1875    0.0000 C   0  0  0  0  0  0  0  0  0  0  0  0
  2  3  2  0
  3  1  1  0
  4 10  1  0
  5  1  1  0
  6  5  2  0
  7  8  1  0
  8  2  1  0
  9  1  1  0
 10 14  1  0
 11 13  1  0
 12  4  1  0
 13  7  1  0
 14  7  1  0
 15  9  1  0
 16  9  2  0
 17 12  2  0
 18 12  1  0
 19 15  2  0
 20 17  1  0
 21 18  2  0
 22 16  1  0
 23 22  2  0
 24 21  1  0
  2  6  1  0
 19 23  1  0
 11  4  1  0
 20 24  2  0
M  END
> <chembl_id>
CHEMBL343657

> <chembl_pref_name>
None

$$$$

     RDKit          2D

 27 27  0  0  0  0  0  0  0  0999 V2000
   13.8916   -2.0614    0.0000 Cl  0  0  0  0  0  0  0  0  0  0  0  0
    2.5987   -1.5004    0.0000 C   0  0  0  0  0  0  0  0  0  0  0  0
    3.9511   -0.8815    0.0000 N   0  0  0  0  0  0  0  0  0  0  0  0
    2.7343   -2.9815    0.0000 N   0  0  0  0  0  0  0  0  0  0  0  0
    4.2010   -3.2956    0.0000 C   0  0  0  0  0  0  0  0  0  0  0  0
    4.9531   -1.9978    0.0000 C   0  0  0  0  0  0  0  0  0  0  0  0
    1.2990   -0.7500    0.0000 C   0  0  0  0  0  0  0  0  0  0  0  0
    1.2990    0.7500    0.0000 C   0  0  0  0  0  0  0  0  0  0  0  0
    0.0000    1.5000    0.0000 C   0  0  0  0  0  0  0  0  0  0  0  0
   -1.2990    0.7500    0.0000 C   0  0  0  0  0  0  0  0  0  0  0  0
    6.3036   -4.8212    0.0000 N   0  0  0  0  0  0  0  0  0  0  0  0
    4.8111   -4.6641    0.0000 C   0  0  0  0  0  0  0  0  0  0  0  0
    0.0000   -1.5000    0.0000 C   0  0  0  0  0  0  0  0  0  0  0  0
   -1.2990   -0.7500    0.0000 C   0  0  0  0  0  0  0  0  0  0  0  0
    6.9148   -6.1919    0.0000 C   0  0  0  0  0  0  0  0  0  0  0  0
    0.0031    3.0008    0.0000 O   0  0  0  0  0  0  0  0  0  0  0  0
    8.4073   -6.3490    0.0000 C   0  0  0  0  0  0  0  0  0  0  0  0
   -2.6003    1.4977    0.0000 O   0  0  0  0  0  0  0  0  0  0  0  0
    7.0088   -3.8502    0.0000 C   0  0  0  0  0  0  0  0  0  0  0  0
    1.0432    3.5994    0.0000 C   0  0  0  0  0  0  0  0  0  0  0  0
    9.0201   -7.7182    0.0000 C   0  0  0  0  0  0  0  0  0  0  0  0
    9.2868   -5.1338    0.0000 C   0  0  0  0  0  0  0  0  0  0  0  0
   -3.6387    0.8962    0.0000 C   0  0  0  0  0  0  0  0  0  0  0  0
   10.5122   -7.8721    0.0000 C   0  0  0  0  0  0  0  0  0  0  0  0
   10.7789   -5.2878    0.0000 C   0  0  0  0  0  0  0  0  0  0  0  0
   11.3916   -6.6569    0.0000 C   0  0  0  0  0  0  0  0  0  0  0  0
   16.3916   -2.0614    0.0000 Cl  0  0  0  0  0  0  0  0  0  0  0  0
  2  3  1  0
  2  4  2  0
  4  5  1  0
  3  6  1  0
  5  6  2  0
  2  7  1  0
  7  8  2  0
  8  9  1  0
  9 10  2  0
  5 12  1  0
 11 12  1  0
  7 13  1  0
 10 14  1  0
 13 14  2  0
 11 15  1  0
  9 16  1  0
 15 17  1  0
 10 18  1  0
 11 19  1  0
 16 20  1  0
 17 21  1  0
 17 22  2  0
 18 23  1  0
 21 24  2  0
 22 25  1  0
 24 26  1  0
 25 26  2  0
M  END
> <chembl_id>
CHEMBL545460

> <chembl_pref_name>
None

$$$$

     RDKit          2D

 25 25  0  0  0  0  0  0  0  0999 V2000
   13.8916   -2.0614    0.0000 Cl  0  0  0  0  0  0  0  0  0  0  0  0
    2.5987   -1.5004    0.0000 C   0  0  0  0  0  0  0  0  0  0  0  0
    3.9511   -0.8815    0.0000 N   0  0  0  0  0  0  0  0  0  0  0  0
    2.7343   -2.9815    0.0000 N   0  0  0  0  0  0  0  0  0  0  0  0
    4.2010   -3.2956    0.0000 C   0  0  0  0  0  0  0  0  0  0  0  0
    4.9531   -1.9978    0.0000 C   0  0  0  0  0  0  0  0  0  0  0  0
    1.2990   -0.7500    0.0000 C   0  0  0  0  0  0  0  0  0  0  0  0
    6.3036   -4.8212    0.0000 N   0  0  0  0  0  0  0  0  0  0  0  0
    4.8111   -4.6641    0.0000 C   0  0  0  0  0  0  0  0  0  0  0  0
    1.2990    0.7500    0.0000 C   0  0  0  0  0  0  0  0  0  0  0  0
    6.9148   -6.1919    0.0000 C   0  0  0  0  0  0  0  0  0  0  0  0
    0.0000    1.5000    0.0000 C   0  0  0  0  0  0  0  0  0  0  0  0
    8.4073   -6.3490    0.0000 C   0  0  0  0  0  0  0  0  0  0  0  0
   -0.0031    3.0008    0.0000 O   0  0  0  0  0  0  0  0  0  0  0  0
    0.0000   -1.5000    0.0000 C   0  0  0  0  0  0  0  0  0  0  0  0
   -1.2990   -0.7500    0.0000 C   0  0  0  0  0  0  0  0  0  0  0  0
    7.0088   -3.8502    0.0000 C   0  0  0  0  0  0  0  0  0  0  0  0
   -1.2990    0.7500    0.0000 C   0  0  0  0  0  0  0  0  0  0  0  0
    9.0201   -7.7182    0.0000 C   0  0  0  0  0  0  0  0  0  0  0  0
    9.2868   -5.1338    0.0000 C   0  0  0  0  0  0  0  0  0  0  0  0
   -1.0432    3.5993    0.0000 C   0  0  0  0  0  0  0  0  0  0  0  0
   10.5122   -7.8721    0.0000 C   0  0  0  0  0  0  0  0  0  0  0  0
   10.7789   -5.2878    0.0000 C   0  0  0  0  0  0  0  0  0  0  0  0
   11.3916   -6.6569    0.0000 C   0  0  0  0  0  0  0  0  0  0  0  0
   16.3916   -2.0614    0.0000 Cl  0  0  0  0  0  0  0  0  0  0  0  0
  2  3  1  0
  2  4  2  0
  4  5  1  0
  3  6  1  0
  5  6  2  0
  2  7  1  0
  5  9  1  0
  8  9  1  0
  7 10  2  0
  8 11  1  0
 10 12  1  0
 11 13  1  0
 12 14  1  0
  7 15  1  0
 15 16  2  0
  8 17  1  0
 12 18  2  0
 16 18  1  0
 13 19  1  0
 13 20  2  0
 14 21  1  0
 19 22  2  0
 20 23  1  0
 22 24  1  0
 23 24  2  0
M  END
> <chembl_id>
CHEMBL540284

> <chembl_pref_name>
None

$$$$

     RDKit          2D

 26 26  0  0  0  0  0  0  0  0999 V2000
   13.8916   -2.4341    0.0000 Cl  0  0  0  0  0  0  0  0  0  0  0  0
    2.5987   -1.5004    0.0000 C   0  0  0  0  0  0  0  0  0  0  0  0
    1.2990   -0.7500    0.0000 C   0  0  0  0  0  0  0  0  0  0  0  0
    3.9511   -0.8815    0.0000 N   0  0  0  0  0  0  0  0  0  0  0  0
    2.7343   -2.9815    0.0000 N   0  0  0  0  0  0  0  0  0  0  0  0
    4.2010   -3.2956    0.0000 C   0  0  0  0  0  0  0  0  0  0  0  0
    4.9531   -1.9978    0.0000 C   0  0  0  0  0  0  0  0  0  0  0  0
    1.2990    0.7500    0.0000 C   0  0  0  0  0  0  0  0  0  0  0  0
    0.0000   -1.5000    0.0000 C   0  0  0  0  0  0  0  0  0  0  0  0
    6.3036   -4.8212    0.0000 N   0  0  0  0  0  0  0  0  0  0  0  0
    4.8111   -4.6641    0.0000 C   0  0  0  0  0  0  0  0  0  0  0  0
    0.0000    1.5000    0.0000 C   0  0  0  0  0  0  0  0  0  0  0  0
   -1.2990   -0.7500    0.0000 C   0  0  0  0  0  0  0  0  0  0  0  0
    6.9148   -6.1919    0.0000 C   0  0  0  0  0  0  0  0  0  0  0  0
   -1.2990    0.7500    0.0000 C   0  0  0  0  0  0  0  0  0  0  0  0
   -2.3383   -1.3500    0.0000 Br  0  0  0  0  0  0  0  0  0  0  0  0
    2.5972    1.5031    0.0000 O   0  0  0  0  0  0  0  0  0  0  0  0
    8.4073   -6.3490    0.0000 C   0  0  0  0  0  0  0  0  0  0  0  0
    7.0088   -3.8502    0.0000 C   0  0  0  0  0  0  0  0  0  0  0  0
    9.0201   -7.7182    0.0000 C   0  0  0  0  0  0  0  0  0  0  0  0
    9.2868   -5.1338    0.0000 C   0  0  0  0  0  0  0  0  0  0  0  0
    2.5955    2.7031    0.0000 C   0  0  0  0  0  0  0  0  0  0  0  0
   10.5122   -7.8721    0.0000 C   0  0  0  0  0  0  0  0  0  0  0  0
   10.7789   -5.2878    0.0000 C   0  0  0  0  0  0  0  0  0  0  0  0
   11.3916   -6.6569    0.0000 C   0  0  0  0  0  0  0  0  0  0  0  0
   16.3916   -2.4341    0.0000 Cl  0  0  0  0  0  0  0  0  0  0  0  0
  2  3  1  0
  2  4  1  0
  2  5  2  0
  5  6  1  0
  4  7  1  0
  6  7  2  0
  3  8  2  0
  3  9  1  0
  6 11  1  0
 10 11  1  0
  8 12  1  0
  9 13  2  0
 10 14  1  0
 12 15  2  0
 13 15  1  0
 13 16  1  0
  8 17  1  0
 14 18  1  0
 10 19  1  0
 18 20  2  0
 18 21  1  0
 17 22  1  0
 20 23  1  0
 21 24  2  0
 23 25  2  0
 24 25  1  0
M  END
> <chembl_id>
CHEMBL543115

> <chembl_pref_name>
None

$$$$

     RDKit          2D

 24 27  0  0  0  0  0  0  0  0999 V2000
    2.9167   -0.8625    0.0000 N   0  0  0  0  0  0  0  0  0  0  0  0
    4.2167   -0.5792    0.0000 C   0  0  0  0  0  0  0  0  0  0  0  0
    3.6667   -1.1917    0.0000 C   0  0  0  0  0  0  0  0  0  0  0  0
    3.0000   -0.0417    0.0000 C   0  0  0  0  0  0  0  0  0  0  0  0
    6.0500   -2.9250    0.0000 C   0  0  0  0  0  0  0  0  0  0  0  0
    3.8042    0.1333    0.0000 C   0  0  0  0  0  0  0  0  0  0  0  0
    5.3792   -1.4167    0.0000 N   0  0  0  0  0  0  0  0  0  0  0  0
    5.2292   -2.8375    0.0000 C   0  0  0  0  0  0  0  0  0  0  0  0
    2.2042   -1.2792    0.0000 C   0  0  0  0  0  0  0  0  0  0  0  0
    5.0417   -0.6667    0.0000 C   0  0  0  0  0  0  0  0  0  0  0  0
    6.5375   -2.2542    0.0000 C   0  0  0  0  0  0  0  0  0  0  0  0
    6.3875   -3.6792    0.0000 C   0  0  0  0  0  0  0  0  0  0  0  0
    4.8917   -2.0875    0.0000 C   0  0  0  0  0  0  0  0  0  0  0  0
    6.2000   -1.5000    0.0000 C   0  0  0  0  0  0  0  0  0  0  0  0
    2.2042   -2.1042    0.0000 C   0  0  0  0  0  0  0  0  0  0  0  0
    1.4917   -0.8667    0.0000 C   0  0  0  0  0  0  0  0  0  0  0  0
    5.9000   -4.3417    0.0000 C   0  0  0  0  0  0  0  0  0  0  0  0
    7.2042   -3.7625    0.0000 C   0  0  0  0  0  0  0  0  0  0  0  0
    1.4917   -2.5167    0.0000 C   0  0  0  0  0  0  0  0  0  0  0  0
    6.2292   -5.1000    0.0000 C   0  0  0  0  0  0  0  0  0  0  0  0
    7.5417   -4.5042    0.0000 C   0  0  0  0  0  0  0  0  0  0  0  0
    0.7792   -1.2792    0.0000 C   0  0  0  0  0  0  0  0  0  0  0  0
    0.7792   -2.1042    0.0000 C   0  0  0  0  0  0  0  0  0  0  0  0
    7.0542   -5.1875    0.0000 C   0  0  0  0  0  0  0  0  0  0  0  0
  2  3  2  0
  3  1  1  0
  4  1  1  0
  5 11  1  0
  6  4  2  0
  7 10  1  0
  8 13  1  0
  9  1  1  0
 10  2  1  0
 11 14  1  0
 12  5  1  0
 13  7  1  0
 14  7  1  0
 15  9  1  0
 16  9  2  0
 17 12  2  0
 18 12  1  0
 19 15  2  0
 20 17  1  0
 21 18  2  0
 22 16  1  0
 23 22  2  0
 24 21  1  0
  2  6  1  0
 19 23  1  0
  8  5  2  0
 20 24  2  0
M  END
> <chembl_id>
CHEMBL147731

> <chembl_pref_name>
None

$$$$

     RDKit          2D

 24 27  0  0  0  0  0  0  0  0999 V2000
    2.9167   -0.8625    0.0000 N   0  0  0  0  0  0  0  0  0  0  0  0
    4.2167   -0.5792    0.0000 C   0  0  0  0  0  0  0  0  0  0  0  0
    3.6667   -1.1917    0.0000 C   0  0  0  0  0  0  0  0  0  0  0  0
    6.0500   -2.9250    0.0000 N   0  0  0  0  0  0  0  0  0  0  0  0
    3.0000   -0.0417    0.0000 C   0  0  0  0  0  0  0  0  0  0  0  0
    6.3875   -3.6792    0.0000 C   0  0  0  0  0  0  0  0  0  0  0  0
    3.8042    0.1333    0.0000 C   0  0  0  0  0  0  0  0  0  0  0  0
    5.3792   -1.4167    0.0000 N   0  0  0  0  0  0  0  0  0  0  0  0
    5.9000   -4.3417    0.0000 N   0  0  0  0  0  0  0  0  0  0  0  0
    5.0417   -0.6667    0.0000 C   0  0  0  0  0  0  0  0  0  0  0  0
    2.2042   -1.2792    0.0000 C   0  0  0  0  0  0  0  0  0  0  0  0
    5.2292   -2.8375    0.0000 C   0  0  0  0  0  0  0  0  0  0  0  0
    6.5375   -2.2542    0.0000 C   0  0  0  0  0  0  0  0  0  0  0  0
    4.8917   -2.0875    0.0000 C   0  0  0  0  0  0  0  0  0  0  0  0
    6.2000   -1.5000    0.0000 C   0  0  0  0  0  0  0  0  0  0  0  0
    7.2042   -3.7625    0.0000 C   0  0  0  0  0  0  0  0  0  0  0  0
    6.2292   -5.1000    0.0000 C   0  0  0  0  0  0  0  0  0  0  0  0
    1.4917   -0.8667    0.0000 C   0  0  0  0  0  0  0  0  0  0  0  0
    2.2042   -2.1042    0.0000 C   0  0  0  0  0  0  0  0  0  0  0  0
    7.5417   -4.5042    0.0000 C   0  0  0  0  0  0  0  0  0  0  0  0
    7.0542   -5.1875    0.0000 C   0  0  0  0  0  0  0  0  0  0  0  0
    0.7792   -1.2792    0.0000 C   0  0  0  0  0  0  0  0  0  0  0  0
    1.4917   -2.5167    0.0000 C   0  0  0  0  0  0  0  0  0  0  0  0
    0.7792   -2.1042    0.0000 C   0  0  0  0  0  0  0  0  0  0  0  0
  2  3  2  0
  3  1  1  0
  4 13  1  0
  5  1  1  0
  6  4  1  0
  7  5  2  0
  8 10  1  0
  9  6  2  0
 10  2  1  0
 11  1  1  0
 12 14  1  0
 13 15  1  0
 14  8  1  0
 15  8  1  0
 16  6  1  0
 17  9  1  0
 18 11  2  0
 19 11  1  0
 20 16  2  0
 21 20  1  0
 22 18  1  0
 23 19  2  0
 24 23  1  0
  2  7  1  0
 22 24  2  0
 12  4  1  0
 17 21  2  0
M  END
> <chembl_id>
CHEMBL343466

> <chembl_pref_name>
None

$$$$

     RDKit          2D

 38 38  0  0  0  0  0  0  0  0999 V2000
   -7.8981   -0.2652    0.0000 O   0  0  0  0  0  0  0  0  0  0  0  0
   -8.7231   -0.2652    0.0000 C   0  0  0  0  0  0  0  0  0  0  0  0
   -9.1356   -0.9797    0.0000 O   0  0  0  0  0  0  0  0  0  0  0  0
   -9.1356    0.4493    0.0000 C   0  0  0  0  0  0  0  0  0  0  0  0
   -9.9606    0.4493    0.0000 C   0  0  0  0  0  0  0  0  0  0  0  0
  -10.3731   -0.2652    0.0000 C   0  0  0  0  0  0  0  0  0  0  0  0
   -9.9606   -0.9797    0.0000 O   0  0  0  0  0  0  0  0  0  0  0  0
  -11.1981   -0.2652    0.0000 O   0  0  0  0  0  0  0  0  0  0  0  0
   -8.2813    3.4185    0.0000 O   0  0  0  0  0  0  0  0  0  0  0  0
   -9.1063    3.4185    0.0000 C   0  0  0  0  0  0  0  0  0  0  0  0
   -9.5188    2.7040    0.0000 O   0  0  0  0  0  0  0  0  0  0  0  0
   -9.5188    4.1330    0.0000 C   0  0  0  0  0  0  0  0  0  0  0  0
  -10.3438    4.1330    0.0000 C   0  0  0  0  0  0  0  0  0  0  0  0
  -10.7563    3.4185    0.0000 C   0  0  0  0  0  0  0  0  0  0  0  0
  -10.3438    2.7040    0.0000 O   0  0  0  0  0  0  0  0  0  0  0  0
  -11.5813    3.4185    0.0000 O   0  0  0  0  0  0  0  0  0  0  0  0
   -3.0985    1.2473    0.0000 C   0  0  0  0  0  0  0  0  0  0  0  0
   -3.0243    2.0627    0.0000 N   0  0  0  0  0  0  0  0  0  0  0  0
   -2.3457    0.9166    0.0000 N   0  0  0  0  0  0  0  0  0  0  0  0
   -1.8097    1.5324    0.0000 C   0  0  0  0  0  0  0  0  0  0  0  0
   -2.2203    2.2337    0.0000 C   0  0  0  0  0  0  0  0  0  0  0  0
   -3.8111    0.8311    0.0000 C   0  0  0  0  0  0  0  0  0  0  0  0
   -0.6523    0.6941    0.0000 N   0  0  0  0  0  0  0  0  0  0  0  0
   -0.9887    1.4469    0.0000 C   0  0  0  0  0  0  0  0  0  0  0  0
   -4.5182    1.2415    0.0000 C   0  0  0  0  0  0  0  0  0  0  0  0
    0.1687    0.6144    0.0000 C   0  0  0  0  0  0  0  0  0  0  0  0
   -5.2309    0.8196    0.0000 C   0  0  0  0  0  0  0  0  0  0  0  0
   -5.9380    1.2415    0.0000 F   0  0  0  0  0  0  0  0  0  0  0  0
    0.6477    1.2815    0.0000 C   0  0  0  0  0  0  0  0  0  0  0  0
   -3.8111   -0.0014    0.0000 C   0  0  0  0  0  0  0  0  0  0  0  0
   -4.5182   -0.4006    0.0000 C   0  0  0  0  0  0  0  0  0  0  0  0
   -1.1313    0.0328    0.0000 C   0  0  0  0  0  0  0  0  0  0  0  0
   -5.2309   -0.0014    0.0000 C   0  0  0  0  0  0  0  0  0  0  0  0
    0.3057    2.0284    0.0000 C   0  0  0  0  0  0  0  0  0  0  0  0
    1.4575    1.1960    0.0000 C   0  0  0  0  0  0  0  0  0  0  0  0
    1.9364    1.8631    0.0000 C   0  0  0  0  0  0  0  0  0  0  0  0
    0.7845    2.6955    0.0000 C   0  0  0  0  0  0  0  0  0  0  0  0
    1.6056    2.6100    0.0000 C   0  0  0  0  0  0  0  0  0  0  0  0
  1  2  1  0
  2  3  2  0
  2  4  1  0
  4  5  2  0
  5  6  1  0
  6  7  2  0
  6  8  1  0
  9 10  1  0
 10 11  2  0
 10 12  1  0
 12 13  2  0
 13 14  1  0
 14 15  2  0
 14 16  1  0
 18 17  1  0
 19 17  2  0
 20 19  1  0
 21 18  1  0
 22 17  1  0
 23 24  1  0
 24 20  1  0
 25 22  2  0
 26 23  1  0
 27 25  1  0
 28 27  1  0
 29 26  1  0
 30 22  1  0
 31 30  2  0
 32 23  1  0
 33 31  1  0
 34 29  1  0
 35 29  2  0
 36 35  1  0
 37 34  2  0
 38 36  2  0
 20 21  2  0
 27 33  2  0
 37 38  1  0
M  END
> <chembl_id>
CHEMBL1794814

> <chembl_pref_name>
None

$$$$

     RDKit          2D

 23 23  0  0  0  0  0  0  0  0999 V2000
   13.8916   -3.1861    0.0000 Cl  0  0  0  0  0  0  0  0  0  0  0  0
    2.5987   -1.5004    0.0000 C   0  0  0  0  0  0  0  0  0  0  0  0
    3.9511   -0.8815    0.0000 N   0  0  0  0  0  0  0  0  0  0  0  0
    2.7343   -2.9815    0.0000 N   0  0  0  0  0  0  0  0  0  0  0  0
    4.2010   -3.2956    0.0000 C   0  0  0  0  0  0  0  0  0  0  0  0
    4.9531   -1.9978    0.0000 C   0  0  0  0  0  0  0  0  0  0  0  0
    1.2990   -0.7500    0.0000 C   0  0  0  0  0  0  0  0  0  0  0  0
    6.3036   -4.8212    0.0000 N   0  0  0  0  0  0  0  0  0  0  0  0
    4.8111   -4.6641    0.0000 C   0  0  0  0  0  0  0  0  0  0  0  0
    6.9148   -6.1919    0.0000 C   0  0  0  0  0  0  0  0  0  0  0  0
    8.4073   -6.3490    0.0000 C   0  0  0  0  0  0  0  0  0  0  0  0
    7.0088   -3.8502    0.0000 C   0  0  0  0  0  0  0  0  0  0  0  0
    1.2990    0.7500    0.0000 C   0  0  0  0  0  0  0  0  0  0  0  0
    0.0000   -1.5000    0.0000 C   0  0  0  0  0  0  0  0  0  0  0  0
    9.0201   -7.7182    0.0000 C   0  0  0  0  0  0  0  0  0  0  0  0
    9.2868   -5.1338    0.0000 C   0  0  0  0  0  0  0  0  0  0  0  0
    0.0000    1.5000    0.0000 C   0  0  0  0  0  0  0  0  0  0  0  0
   -1.2990   -0.7500    0.0000 C   0  0  0  0  0  0  0  0  0  0  0  0
   10.7789   -5.2878    0.0000 C   0  0  0  0  0  0  0  0  0  0  0  0
   10.5122   -7.8721    0.0000 C   0  0  0  0  0  0  0  0  0  0  0  0
   -1.2990    0.7500    0.0000 C   0  0  0  0  0  0  0  0  0  0  0  0
   11.3916   -6.6569    0.0000 C   0  0  0  0  0  0  0  0  0  0  0  0
   16.3916   -3.1861    0.0000 Cl  0  0  0  0  0  0  0  0  0  0  0  0
  2  3  1  0
  2  4  2  0
  4  5  1  0
  3  6  1  0
  5  6  2  0
  2  7  1  0
  5  9  1  0
  8  9  1  0
  8 10  1  0
 10 11  1  0
  8 12  1  0
  7 13  2  0
  7 14  1  0
 11 15  2  0
 11 16  1  0
 13 17  1  0
 14 18  2  0
 16 19  2  0
 15 20  1  0
 17 21  2  0
 18 21  1  0
 19 22  1  0
 20 22  2  0
M  END
> <chembl_id>
CHEMBL538249

> <chembl_pref_name>
None

$$$$

     RDKit          2D

 26 29  0  0  0  0  0  0  0  0999 V2000
    2.9167   -0.8625    0.0000 N   0  0  0  0  0  0  0  0  0  0  0  0
    4.2167   -0.5792    0.0000 C   0  0  0  0  0  0  0  0  0  0  0  0
    3.6667   -1.1917    0.0000 C   0  0  0  0  0  0  0  0  0  0  0  0
    3.0000   -0.0417    0.0000 C   0  0  0  0  0  0  0  0  0  0  0  0
    6.0500   -2.9250    0.0000 C   0  0  0  0  0  0  0  0  0  0  0  0
    3.8042    0.1333    0.0000 C   0  0  0  0  0  0  0  0  0  0  0  0
    5.3792   -1.4167    0.0000 N   0  0  0  0  0  0  0  0  0  0  0  0
    5.2292   -2.8375    0.0000 C   0  0  0  0  0  0  0  0  0  0  0  0
    6.5375   -2.2542    0.0000 C   0  0  0  0  0  0  0  0  0  0  0  0
    5.8292   -3.7167    0.0000 C   0  0  0  0  0  0  0  0  0  0  0  0
    5.0417   -0.6667    0.0000 C   0  0  0  0  0  0  0  0  0  0  0  0
    2.2042   -1.2792    0.0000 C   0  0  0  0  0  0  0  0  0  0  0  0
    6.2000   -1.5000    0.0000 C   0  0  0  0  0  0  0  0  0  0  0  0
    4.8917   -2.0875    0.0000 C   0  0  0  0  0  0  0  0  0  0  0  0
    5.0292   -3.9167    0.0000 C   0  0  0  0  0  0  0  0  0  0  0  0
    6.4042   -4.3000    0.0000 C   0  0  0  0  0  0  0  0  0  0  0  0
    6.8417   -3.1375    0.0000 O   0  0  0  0  0  0  0  0  0  0  0  0
    5.3875   -5.3042    0.0000 C   0  0  0  0  0  0  0  0  0  0  0  0
    6.1917   -5.0917    0.0000 C   0  0  0  0  0  0  0  0  0  0  0  0
    4.8125   -4.7167    0.0000 C   0  0  0  0  0  0  0  0  0  0  0  0
    5.1667   -6.1000    0.0000 Cl  0  0  0  0  0  0  0  0  0  0  0  0
    2.2042   -2.1042    0.0000 C   0  0  0  0  0  0  0  0  0  0  0  0
    1.4917   -0.8667    0.0000 C   0  0  0  0  0  0  0  0  0  0  0  0
    1.4917   -2.5167    0.0000 C   0  0  0  0  0  0  0  0  0  0  0  0
    0.7792   -1.2792    0.0000 C   0  0  0  0  0  0  0  0  0  0  0  0
    0.7792   -2.1042    0.0000 C   0  0  0  0  0  0  0  0  0  0  0  0
  2  3  2  0
  3  1  1  0
  4  1  1  0
  5  8  1  0
  6  4  2  0
  7 11  1  0
  8 14  1  0
  9 13  1  0
 10  5  1  0
 11  2  1  0
 12  1  1  0
 13  7  1  0
 14  7  1  0
 15 10  2  0
 16 10  1  0
 17  5  1  0
 18 19  1  0
 19 16  2  0
 20 15  1  0
 21 18  1  0
 22 12  1  0
 23 12  2  0
 24 22  2  0
 25 23  1  0
 26 25  2  0
  2  6  1  0
 26 24  1  0
  9  5  1  0
 20 18  2  0
M  END
> <chembl_id>
CHEMBL147003

> <chembl_pref_name>
None

$$$$

     RDKit          2D

 26 29  0  0  0  0  0  0  0  0999 V2000
    2.8292   -0.5667    0.0000 N   0  0  0  0  0  0  0  0  0  0  0  0
    3.8542   -1.4167    0.0000 C   0  0  0  0  0  0  0  0  0  0  0  0
    3.0292   -1.3667    0.0000 C   0  0  0  0  0  0  0  0  0  0  0  0
    6.7625   -2.0292    0.0000 N   0  0  0  0  0  0  0  0  0  0  0  0
    3.5292   -0.1292    0.0000 C   0  0  0  0  0  0  0  0  0  0  0  0
    7.5875   -2.0000    0.0000 C   0  0  0  0  0  0  0  0  0  0  0  0
    4.1625   -0.6542    0.0000 C   0  0  0  0  0  0  0  0  0  0  0  0
    5.1167   -2.0917    0.0000 N   0  0  0  0  0  0  0  0  0  0  0  0
    4.2917   -2.1167    0.0000 C   0  0  0  0  0  0  0  0  0  0  0  0
    2.0667   -0.2542    0.0000 C   0  0  0  0  0  0  0  0  0  0  0  0
    6.3750   -2.7542    0.0000 C   0  0  0  0  0  0  0  0  0  0  0  0
    6.3167   -1.3292    0.0000 C   0  0  0  0  0  0  0  0  0  0  0  0
    7.9667   -1.2667    0.0000 C   0  0  0  0  0  0  0  0  0  0  0  0
    5.5500   -2.7875    0.0000 C   0  0  0  0  0  0  0  0  0  0  0  0
    5.4917   -1.3625    0.0000 C   0  0  0  0  0  0  0  0  0  0  0  0
    7.5292   -0.5750    0.0000 O   0  0  0  0  0  0  0  0  0  0  0  0
    8.0250   -2.7000    0.0000 C   0  0  0  0  0  0  0  0  0  0  0  0
    1.9542    0.5583    0.0000 C   0  0  0  0  0  0  0  0  0  0  0  0
    1.4167   -0.7667    0.0000 C   0  0  0  0  0  0  0  0  0  0  0  0
    8.7917   -1.2375    0.0000 C   0  0  0  0  0  0  0  0  0  0  0  0
    7.9167    0.1583    0.0000 C   0  0  0  0  0  0  0  0  0  0  0  0
    8.8500   -2.6667    0.0000 C   0  0  0  0  0  0  0  0  0  0  0  0
    1.1875    0.8708    0.0000 C   0  0  0  0  0  0  0  0  0  0  0  0
    0.6542   -0.4625    0.0000 C   0  0  0  0  0  0  0  0  0  0  0  0
    9.2292   -1.9417    0.0000 C   0  0  0  0  0  0  0  0  0  0  0  0
    0.5375    0.3583    0.0000 C   0  0  0  0  0  0  0  0  0  0  0  0
  2  3  2  0
  3  1  1  0
  4 12  1  0
  5  1  1  0
  6  4  1  0
  7  5  2  0
  8  9  1  0
  9  2  1  0
 10  1  1  0
 11 14  1  0
 12 15  1  0
 13  6  1  0
 14  8  1  0
 15  8  1  0
 16 13  1  0
 17  6  2  0
 18 10  2  0
 19 10  1  0
 20 13  2  0
 21 16  1  0
 22 17  1  0
 23 18  1  0
 24 19  2  0
 25 22  2  0
 26 24  1  0
  2  7  1  0
 23 26  2  0
 11  4  1  0
 25 20  1  0
M  END
> <chembl_id>
CHEMBL28321

> <chembl_pref_name>
None

$$$$

     RDKit          2D

 27 27  0  0  0  0  0  0  0  0999 V2000
   13.8916   -2.0614    0.0000 Cl  0  0  0  0  0  0  0  0  0  0  0  0
    2.5987   -1.5004    0.0000 C   0  0  0  0  0  0  0  0  0  0  0  0
    1.2990   -0.7500    0.0000 C   0  0  0  0  0  0  0  0  0  0  0  0
    3.9511   -0.8815    0.0000 N   0  0  0  0  0  0  0  0  0  0  0  0
    2.7343   -2.9815    0.0000 N   0  0  0  0  0  0  0  0  0  0  0  0
    4.2010   -3.2956    0.0000 C   0  0  0  0  0  0  0  0  0  0  0  0
    1.2990    0.7500    0.0000 C   0  0  0  0  0  0  0  0  0  0  0  0
    4.9531   -1.9978    0.0000 C   0  0  0  0  0  0  0  0  0  0  0  0
    6.3036   -4.8212    0.0000 N   0  0  0  0  0  0  0  0  0  0  0  0
    0.0000    1.5000    0.0000 C   0  0  0  0  0  0  0  0  0  0  0  0
    4.8111   -4.6641    0.0000 C   0  0  0  0  0  0  0  0  0  0  0  0
    6.9148   -6.1919    0.0000 C   0  0  0  0  0  0  0  0  0  0  0  0
    2.5972    1.5031    0.0000 O   0  0  0  0  0  0  0  0  0  0  0  0
    0.0000   -1.5000    0.0000 C   0  0  0  0  0  0  0  0  0  0  0  0
    8.4073   -6.3490    0.0000 C   0  0  0  0  0  0  0  0  0  0  0  0
   -0.0031    3.0008    0.0000 O   0  0  0  0  0  0  0  0  0  0  0  0
   -1.2990   -0.7500    0.0000 C   0  0  0  0  0  0  0  0  0  0  0  0
   -1.2990    0.7500    0.0000 C   0  0  0  0  0  0  0  0  0  0  0  0
    7.0088   -3.8502    0.0000 C   0  0  0  0  0  0  0  0  0  0  0  0
    2.5955    2.7031    0.0000 C   0  0  0  0  0  0  0  0  0  0  0  0
    9.0201   -7.7182    0.0000 C   0  0  0  0  0  0  0  0  0  0  0  0
    9.2868   -5.1338    0.0000 C   0  0  0  0  0  0  0  0  0  0  0  0
   -1.0432    3.5993    0.0000 C   0  0  0  0  0  0  0  0  0  0  0  0
   10.5122   -7.8721    0.0000 C   0  0  0  0  0  0  0  0  0  0  0  0
   10.7789   -5.2878    0.0000 C   0  0  0  0  0  0  0  0  0  0  0  0
   11.3916   -6.6569    0.0000 C   0  0  0  0  0  0  0  0  0  0  0  0
   16.3916   -2.0614    0.0000 Cl  0  0  0  0  0  0  0  0  0  0  0  0
  2  3  1  0
  2  4  1  0
  2  5  2  0
  5  6  1  0
  3  7  2  0
  4  8  1  0
  6  8  2  0
  7 10  1  0
  6 11  1  0
  9 11  1  0
  9 12  1  0
  7 13  1  0
  3 14  1  0
 12 15  1  0
 10 16  1  0
 14 17  2  0
 10 18  2  0
 17 18  1  0
  9 19  1  0
 13 20  1  0
 15 21  1  0
 15 22  2  0
 16 23  1  0
 21 24  2  0
 22 25  1  0
 24 26  1  0
 25 26  2  0
M  END
> <chembl_id>
CHEMBL541820

> <chembl_pref_name>
None

$$$$

     RDKit          2D

 25 25  0  0  0  0  0  0  0  0999 V2000
   13.8916   -2.4341    0.0000 Cl  0  0  0  0  0  0  0  0  0  0  0  0
    2.5987   -1.5004    0.0000 C   0  0  0  0  0  0  0  0  0  0  0  0
    3.9511   -0.8815    0.0000 N   0  0  0  0  0  0  0  0  0  0  0  0
    2.7343   -2.9815    0.0000 N   0  0  0  0  0  0  0  0  0  0  0  0
    4.2010   -3.2956    0.0000 C   0  0  0  0  0  0  0  0  0  0  0  0
    4.9531   -1.9978    0.0000 C   0  0  0  0  0  0  0  0  0  0  0  0
    1.2990   -0.7500    0.0000 C   0  0  0  0  0  0  0  0  0  0  0  0
    6.3036   -4.8212    0.0000 N   0  0  0  0  0  0  0  0  0  0  0  0
    4.8111   -4.6641    0.0000 C   0  0  0  0  0  0  0  0  0  0  0  0
    1.2990    0.7500    0.0000 C   0  0  0  0  0  0  0  0  0  0  0  0
    0.0000   -1.5000    0.0000 C   0  0  0  0  0  0  0  0  0  0  0  0
    6.9148   -6.1919    0.0000 C   0  0  0  0  0  0  0  0  0  0  0  0
   -1.2990    0.7500    0.0000 C   0  0  0  0  0  0  0  0  0  0  0  0
   -1.2990   -0.7500    0.0000 C   0  0  0  0  0  0  0  0  0  0  0  0
    0.0000    1.5000    0.0000 C   0  0  0  0  0  0  0  0  0  0  0  0
    8.4073   -6.3490    0.0000 C   0  0  0  0  0  0  0  0  0  0  0  0
   -2.5973    1.5031    0.0000 O   0  0  0  0  0  0  0  0  0  0  0  0
    7.0088   -3.8502    0.0000 C   0  0  0  0  0  0  0  0  0  0  0  0
    9.0201   -7.7182    0.0000 C   0  0  0  0  0  0  0  0  0  0  0  0
    9.2868   -5.1338    0.0000 C   0  0  0  0  0  0  0  0  0  0  0  0
   -2.5956    2.7031    0.0000 C   0  0  0  0  0  0  0  0  0  0  0  0
   10.5122   -7.8721    0.0000 C   0  0  0  0  0  0  0  0  0  0  0  0
   10.7789   -5.2878    0.0000 C   0  0  0  0  0  0  0  0  0  0  0  0
   11.3916   -6.6569    0.0000 C   0  0  0  0  0  0  0  0  0  0  0  0
   16.3916   -2.4341    0.0000 Cl  0  0  0  0  0  0  0  0  0  0  0  0
  2  3  1  0
  2  4  2  0
  4  5  1  0
  3  6  1  0
  5  6  2  0
  2  7  1  0
  5  9  1  0
  8  9  1  0
  7 10  2  0
  7 11  1  0
  8 12  1  0
 11 14  2  0
 13 14  1  0
 10 15  1  0
 13 15  2  0
 12 16  1  0
 13 17  1  0
  8 18  1  0
 16 19  1  0
 16 20  2  0
 17 21  1  0
 19 22  2  0
 20 23  1  0
 22 24  1  0
 23 24  2  0
M  END
> <chembl_id>
CHEMBL541062

> <chembl_pref_name>
None

$$$$

     RDKit          2D

 29 32  0  0  0  0  0  0  0  0999 V2000
    2.9167   -0.8625    0.0000 N   0  0  0  0  0  0  0  0  0  0  0  0
    6.7792   -5.6750    0.0000 C   0  0  0  0  0  0  0  0  0  0  0  0
    4.2167   -0.5792    0.0000 C   0  0  0  0  0  0  0  0  0  0  0  0
    3.6667   -1.1917    0.0000 C   0  0  0  0  0  0  0  0  0  0  0  0
    6.0500   -2.9250    0.0000 C   0  0  0  0  0  0  0  0  0  0  0  0
    3.0000   -0.0417    0.0000 C   0  0  0  0  0  0  0  0  0  0  0  0
    6.1917   -5.0917    0.0000 C   0  0  0  0  0  0  0  0  0  0  0  0
    3.8042    0.1333    0.0000 C   0  0  0  0  0  0  0  0  0  0  0  0
    5.3792   -1.4167    0.0000 N   0  0  0  0  0  0  0  0  0  0  0  0
    5.8292   -3.7167    0.0000 C   0  0  0  0  0  0  0  0  0  0  0  0
    6.4042   -4.3000    0.0000 C   0  0  0  0  0  0  0  0  0  0  0  0
    5.2292   -2.8375    0.0000 C   0  0  0  0  0  0  0  0  0  0  0  0
    6.5375   -2.2542    0.0000 C   0  0  0  0  0  0  0  0  0  0  0  0
    5.0417   -0.6667    0.0000 C   0  0  0  0  0  0  0  0  0  0  0  0
    2.2042   -1.2792    0.0000 C   0  0  0  0  0  0  0  0  0  0  0  0
    7.3042   -6.2042    0.0000 F   0  0  0  0  0  0  0  0  0  0  0  0
    6.6875   -6.5292    0.0000 F   0  0  0  0  0  0  0  0  0  0  0  0
    7.6292   -5.5917    0.0000 F   0  0  0  0  0  0  0  0  0  0  0  0
    6.2000   -1.5000    0.0000 C   0  0  0  0  0  0  0  0  0  0  0  0
    4.8917   -2.0875    0.0000 C   0  0  0  0  0  0  0  0  0  0  0  0
    6.8417   -3.1375    0.0000 O   0  0  0  0  0  0  0  0  0  0  0  0
    5.3917   -5.3000    0.0000 C   0  0  0  0  0  0  0  0  0  0  0  0
    5.0292   -3.9250    0.0000 C   0  0  0  0  0  0  0  0  0  0  0  0
    4.8167   -4.7125    0.0000 C   0  0  0  0  0  0  0  0  0  0  0  0
    2.2042   -2.1042    0.0000 C   0  0  0  0  0  0  0  0  0  0  0  0
    1.4917   -0.8667    0.0000 C   0  0  0  0  0  0  0  0  0  0  0  0
    1.4917   -2.5167    0.0000 C   0  0  0  0  0  0  0  0  0  0  0  0
    0.7792   -1.2792    0.0000 C   0  0  0  0  0  0  0  0  0  0  0  0
    0.7792   -2.1042    0.0000 C   0  0  0  0  0  0  0  0  0  0  0  0
  2  7  1  0
  3  4  2  0
  4  1  1  0
  5 12  1  0
  6  1  1  0
  7 11  2  0
  8  6  2  0
  9 14  1  0
 10  5  1  0
 11 10  1  0
 12 20  1  0
 13 19  1  0
 14  3  1  0
 15  1  1  0
 16  2  1  0
 17  2  1  0
 18  2  1  0
 19  9  1  0
 20  9  1  0
 21  5  1  0
 22 24  2  0
 23 10  2  0
 24 23  1  0
 25 15  1  0
 26 15  2  0
 27 25  2  0
 28 26  1  0
 29 28  2  0
  3  8  1  0
 29 27  1  0
  5 13  1  0
  7 22  1  0
M  END
> <chembl_id>
CHEMBL446892

> <chembl_pref_name>
None

$$$$

     RDKit          2D

 24 27  0  0  0  0  0  0  0  0999 V2000
    2.9167   -0.8625    0.0000 N   0  0  0  0  0  0  0  0  0  0  0  0
    4.2167   -0.5792    0.0000 C   0  0  0  0  0  0  0  0  0  0  0  0
    3.6667   -1.1917    0.0000 C   0  0  0  0  0  0  0  0  0  0  0  0
    3.0000   -0.0417    0.0000 C   0  0  0  0  0  0  0  0  0  0  0  0
    3.8042    0.1333    0.0000 C   0  0  0  0  0  0  0  0  0  0  0  0
    5.3792   -1.4167    0.0000 N   0  0  0  0  0  0  0  0  0  0  0  0
    5.0417   -0.6667    0.0000 C   0  0  0  0  0  0  0  0  0  0  0  0
    2.2042   -1.2792    0.0000 C   0  0  0  0  0  0  0  0  0  0  0  0
    6.0500   -2.9250    0.0000 C   0  0  0  0  0  0  0  0  0  0  0  0
    5.2292   -2.8375    0.0000 C   0  0  0  0  0  0  0  0  0  0  0  0
    6.5375   -2.2542    0.0000 C   0  0  0  0  0  0  0  0  0  0  0  0
    6.3875   -3.6792    0.0000 C   0  0  0  0  0  0  0  0  0  0  0  0
    6.2000   -1.5000    0.0000 C   0  0  0  0  0  0  0  0  0  0  0  0
    4.8917   -2.0875    0.0000 C   0  0  0  0  0  0  0  0  0  0  0  0
    2.2042   -2.1042    0.0000 C   0  0  0  0  0  0  0  0  0  0  0  0
    1.4917   -0.8667    0.0000 C   0  0  0  0  0  0  0  0  0  0  0  0
    5.9000   -4.3417    0.0000 C   0  0  0  0  0  0  0  0  0  0  0  0
    7.2042   -3.7625    0.0000 C   0  0  0  0  0  0  0  0  0  0  0  0
    1.4917   -2.5167    0.0000 C   0  0  0  0  0  0  0  0  0  0  0  0
    6.2292   -5.1000    0.0000 C   0  0  0  0  0  0  0  0  0  0  0  0
    7.5417   -4.5042    0.0000 C   0  0  0  0  0  0  0  0  0  0  0  0
    0.7792   -1.2792    0.0000 C   0  0  0  0  0  0  0  0  0  0  0  0
    0.7792   -2.1042    0.0000 C   0  0  0  0  0  0  0  0  0  0  0  0
    7.0542   -5.1875    0.0000 C   0  0  0  0  0  0  0  0  0  0  0  0
  2  3  2  0
  3  1  1  0
  4  1  1  0
  5  4  2  0
  6  7  1  0
  7  2  1  0
  8  1  1  0
  9 10  1  0
 10 14  1  0
 11 13  1  0
 12  9  1  0
 13  6  1  0
 14  6  1  0
 15  8  1  0
 16  8  2  0
 17 12  2  0
 18 12  1  0
 19 15  2  0
 20 17  1  0
 21 18  2  0
 22 16  1  0
 23 22  2  0
 24 21  1  0
  2  5  1  0
 19 23  1  0
 11  9  1  0
 20 24  2  0
M  END
> <chembl_id>
CHEMBL144835

> <chembl_pref_name>
None

$$$$

     RDKit          2D

 26 26  0  0  0  0  0  0  0  0999 V2000
   13.8916   -2.4341    0.0000 Cl  0  0  0  0  0  0  0  0  0  0  0  0
    2.5987   -1.5004    0.0000 C   0  0  0  0  0  0  0  0  0  0  0  0
    1.2990   -0.7500    0.0000 C   0  0  0  0  0  0  0  0  0  0  0  0
    3.9511   -0.8815    0.0000 N   0  0  0  0  0  0  0  0  0  0  0  0
    2.7343   -2.9815    0.0000 N   0  0  0  0  0  0  0  0  0  0  0  0
    4.2010   -3.2956    0.0000 C   0  0  0  0  0  0  0  0  0  0  0  0
    4.9531   -1.9978    0.0000 C   0  0  0  0  0  0  0  0  0  0  0  0
    1.2990    0.7500    0.0000 C   0  0  0  0  0  0  0  0  0  0  0  0
    0.0000   -1.5000    0.0000 C   0  0  0  0  0  0  0  0  0  0  0  0
    6.3036   -4.8212    0.0000 N   0  0  0  0  0  0  0  0  0  0  0  0
    4.8111   -4.6641    0.0000 C   0  0  0  0  0  0  0  0  0  0  0  0
    0.0000    1.5000    0.0000 C   0  0  0  0  0  0  0  0  0  0  0  0
   -1.2990   -0.7500    0.0000 C   0  0  0  0  0  0  0  0  0  0  0  0
    6.9148   -6.1919    0.0000 C   0  0  0  0  0  0  0  0  0  0  0  0
   -1.2990    0.7500    0.0000 C   0  0  0  0  0  0  0  0  0  0  0  0
   -2.3383   -1.3500    0.0000 Cl  0  0  0  0  0  0  0  0  0  0  0  0
    2.5972    1.5031    0.0000 O   0  0  0  0  0  0  0  0  0  0  0  0
    8.4073   -6.3490    0.0000 C   0  0  0  0  0  0  0  0  0  0  0  0
    7.0088   -3.8502    0.0000 C   0  0  0  0  0  0  0  0  0  0  0  0
    9.0201   -7.7182    0.0000 C   0  0  0  0  0  0  0  0  0  0  0  0
    9.2868   -5.1338    0.0000 C   0  0  0  0  0  0  0  0  0  0  0  0
    2.5955    2.7031    0.0000 C   0  0  0  0  0  0  0  0  0  0  0  0
   10.5122   -7.8721    0.0000 C   0  0  0  0  0  0  0  0  0  0  0  0
   10.7789   -5.2878    0.0000 C   0  0  0  0  0  0  0  0  0  0  0  0
   11.3916   -6.6569    0.0000 C   0  0  0  0  0  0  0  0  0  0  0  0
   16.3916   -2.4341    0.0000 Cl  0  0  0  0  0  0  0  0  0  0  0  0
  2  3  1  0
  2  4  1  0
  2  5  2  0
  5  6  1  0
  4  7  1  0
  6  7  2  0
  3  8  2  0
  3  9  1  0
  6 11  1  0
 10 11  1  0
  8 12  1  0
  9 13  2  0
 10 14  1  0
 12 15  2  0
 13 15  1  0
 13 16  1  0
  8 17  1  0
 14 18  1  0
 10 19  1  0
 18 20  2  0
 18 21  1  0
 17 22  1  0
 20 23  1  0
 21 24  2  0
 23 25  2  0
 24 25  1  0
M  END
> <chembl_id>
CHEMBL544059

> <chembl_pref_name>
None

$$$$

     RDKit          2D

 24 24  0  0  0  0  0  0  0  0999 V2000
   13.8916   -3.1859    0.0000 Cl  0  0  0  0  0  0  0  0  0  0  0  0
    2.5987   -1.5004    0.0000 C   0  0  0  0  0  0  0  0  0  0  0  0
    3.9511   -0.8815    0.0000 N   0  0  0  0  0  0  0  0  0  0  0  0
    2.7343   -2.9815    0.0000 N   0  0  0  0  0  0  0  0  0  0  0  0
    1.2990   -0.7500    0.0000 C   0  0  0  0  0  0  0  0  0  0  0  0
    4.2010   -3.2956    0.0000 C   0  0  0  0  0  0  0  0  0  0  0  0
    4.9531   -1.9978    0.0000 C   0  0  0  0  0  0  0  0  0  0  0  0
    1.2990    0.7500    0.0000 C   0  0  0  0  0  0  0  0  0  0  0  0
    6.3036   -4.8212    0.0000 N   0  0  0  0  0  0  0  0  0  0  0  0
    4.8111   -4.6641    0.0000 C   0  0  0  0  0  0  0  0  0  0  0  0
    6.9148   -6.1919    0.0000 C   0  0  0  0  0  0  0  0  0  0  0  0
    2.3383    1.3500    0.0000 F   0  0  0  0  0  0  0  0  0  0  0  0
    0.0000   -1.5000    0.0000 C   0  0  0  0  0  0  0  0  0  0  0  0
    8.4073   -6.3490    0.0000 C   0  0  0  0  0  0  0  0  0  0  0  0
    7.0088   -3.8502    0.0000 C   0  0  0  0  0  0  0  0  0  0  0  0
    0.0000    1.5000    0.0000 C   0  0  0  0  0  0  0  0  0  0  0  0
    9.0201   -7.7182    0.0000 C   0  0  0  0  0  0  0  0  0  0  0  0
    9.2868   -5.1338    0.0000 C   0  0  0  0  0  0  0  0  0  0  0  0
   -1.2990   -0.7500    0.0000 C   0  0  0  0  0  0  0  0  0  0  0  0
   -1.2990    0.7500    0.0000 C   0  0  0  0  0  0  0  0  0  0  0  0
   10.7789   -5.2878    0.0000 C   0  0  0  0  0  0  0  0  0  0  0  0
   10.5122   -7.8721    0.0000 C   0  0  0  0  0  0  0  0  0  0  0  0
   11.3916   -6.6569    0.0000 C   0  0  0  0  0  0  0  0  0  0  0  0
   16.3916   -3.1859    0.0000 Cl  0  0  0  0  0  0  0  0  0  0  0  0
  2  3  1  0
  2  4  2  0
  2  5  1  0
  4  6  1  0
  3  7  1  0
  6  7  2  0
  5  8  2  0
  6 10  1  0
  9 10  1  0
  9 11  1  0
  8 12  1  0
  5 13  1  0
 11 14  1  0
  9 15  1  0
  8 16  1  0
 14 17  1  0
 14 18  2  0
 13 19  2  0
 16 20  2  0
 19 20  1  0
 18 21  1  0
 17 22  2  0
 21 23  2  0
 22 23  1  0
M  END
> <chembl_id>
CHEMBL538753

> <chembl_pref_name>
None

$$$$

     RDKit          2D

 28 32  0  0  0  0  0  0  0  0999 V2000
    7.1917   -3.8542    0.0000 C   0  0  0  0  0  0  0  0  0  0  0  0
    6.3875   -3.6792    0.0000 N   0  0  0  0  0  0  0  0  0  0  0  0
    7.2792   -4.6750    0.0000 N   0  0  0  0  0  0  0  0  0  0  0  0
    2.9167   -0.8625    0.0000 N   0  0  0  0  0  0  0  0  0  0  0  0
    5.9792   -4.3917    0.0000 C   0  0  0  0  0  0  0  0  0  0  0  0
    4.2167   -0.5792    0.0000 C   0  0  0  0  0  0  0  0  0  0  0  0
    3.6667   -1.1917    0.0000 C   0  0  0  0  0  0  0  0  0  0  0  0
    6.5250   -5.0042    0.0000 C   0  0  0  0  0  0  0  0  0  0  0  0
    3.0000   -0.0417    0.0000 C   0  0  0  0  0  0  0  0  0  0  0  0
    6.0500   -2.9250    0.0000 C   0  0  0  0  0  0  0  0  0  0  0  0
    3.8042    0.1333    0.0000 C   0  0  0  0  0  0  0  0  0  0  0  0
    5.3792   -1.4167    0.0000 N   0  0  0  0  0  0  0  0  0  0  0  0
    7.8042   -3.3000    0.0000 O   0  0  0  0  0  0  0  0  0  0  0  0
    5.2292   -2.8375    0.0000 C   0  0  0  0  0  0  0  0  0  0  0  0
    6.5375   -2.2542    0.0000 C   0  0  0  0  0  0  0  0  0  0  0  0
    5.0417   -0.6667    0.0000 C   0  0  0  0  0  0  0  0  0  0  0  0
    2.2042   -1.2792    0.0000 C   0  0  0  0  0  0  0  0  0  0  0  0
    4.8917   -2.0875    0.0000 C   0  0  0  0  0  0  0  0  0  0  0  0
    6.2000   -1.5000    0.0000 C   0  0  0  0  0  0  0  0  0  0  0  0
    5.1750   -4.5625    0.0000 C   0  0  0  0  0  0  0  0  0  0  0  0
    6.2750   -5.7875    0.0000 C   0  0  0  0  0  0  0  0  0  0  0  0
    1.4917   -0.8667    0.0000 C   0  0  0  0  0  0  0  0  0  0  0  0
    2.2042   -2.1042    0.0000 C   0  0  0  0  0  0  0  0  0  0  0  0
    4.9167   -5.3417    0.0000 C   0  0  0  0  0  0  0  0  0  0  0  0
    5.4750   -5.9542    0.0000 C   0  0  0  0  0  0  0  0  0  0  0  0
    0.7792   -1.2792    0.0000 C   0  0  0  0  0  0  0  0  0  0  0  0
    1.4917   -2.5167    0.0000 C   0  0  0  0  0  0  0  0  0  0  0  0
    0.7792   -2.1042    0.0000 C   0  0  0  0  0  0  0  0  0  0  0  0
  2  1  1  0
  3  1  2  0
  4  7  1  0
  5  2  1  0
  6 16  1  0
  7  6  2  0
  8  3  1  0
  9 11  2  0
 10  2  1  0
 11  6  1  0
 12 19  1  0
 13  1  1  0
 14 10  1  0
 15 10  1  0
 16 12  1  0
 17  4  1  0
 18 14  1  0
 19 15  1  0
 20  5  2  0
 21  8  2  0
 22 17  2  0
 23 17  1  0
 24 20  1  0
 25 21  1  0
 26 22  1  0
 27 23  2  0
 28 27  1  0
  8  5  1  0
 24 25  2  0
 12 18  1  0
  9  4  1  0
 26 28  2  0
M  END
> <chembl_id>
CHEMBL146557

> <chembl_pref_name>
None

$$$$

     RDKit          2D

 25 25  0  0  0  0  0  0  0  0999 V2000
   13.8916   -2.4341    0.0000 Cl  0  0  0  0  0  0  0  0  0  0  0  0
    2.5987   -1.5004    0.0000 C   0  0  0  0  0  0  0  0  0  0  0  0
    3.9511   -0.8815    0.0000 N   0  0  0  0  0  0  0  0  0  0  0  0
    2.7343   -2.9815    0.0000 N   0  0  0  0  0  0  0  0  0  0  0  0
    1.2990   -0.7500    0.0000 C   0  0  0  0  0  0  0  0  0  0  0  0
    4.2010   -3.2956    0.0000 C   0  0  0  0  0  0  0  0  0  0  0  0
    4.9531   -1.9978    0.0000 C   0  0  0  0  0  0  0  0  0  0  0  0
    1.2990    0.7500    0.0000 C   0  0  0  0  0  0  0  0  0  0  0  0
    6.3036   -4.8212    0.0000 N   0  0  0  0  0  0  0  0  0  0  0  0
    4.8111   -4.6641    0.0000 C   0  0  0  0  0  0  0  0  0  0  0  0
    6.9148   -6.1919    0.0000 C   0  0  0  0  0  0  0  0  0  0  0  0
    0.0000   -1.5000    0.0000 C   0  0  0  0  0  0  0  0  0  0  0  0
    2.5972    1.5031    0.0000 O   0  0  0  0  0  0  0  0  0  0  0  0
    8.4073   -6.3490    0.0000 C   0  0  0  0  0  0  0  0  0  0  0  0
    7.0088   -3.8502    0.0000 C   0  0  0  0  0  0  0  0  0  0  0  0
    0.0000    1.5000    0.0000 C   0  0  0  0  0  0  0  0  0  0  0  0
    9.0201   -7.7182    0.0000 C   0  0  0  0  0  0  0  0  0  0  0  0
    9.2868   -5.1338    0.0000 C   0  0  0  0  0  0  0  0  0  0  0  0
    2.5955    2.7031    0.0000 C   0  0  0  0  0  0  0  0  0  0  0  0
   -1.2990   -0.7500    0.0000 C   0  0  0  0  0  0  0  0  0  0  0  0
   -1.2990    0.7500    0.0000 C   0  0  0  0  0  0  0  0  0  0  0  0
   10.5122   -7.8721    0.0000 C   0  0  0  0  0  0  0  0  0  0  0  0
   10.7789   -5.2878    0.0000 C   0  0  0  0  0  0  0  0  0  0  0  0
   11.3916   -6.6569    0.0000 C   0  0  0  0  0  0  0  0  0  0  0  0
   16.3916   -2.4341    0.0000 Cl  0  0  0  0  0  0  0  0  0  0  0  0
  2  3  1  0
  2  4  2  0
  2  5  1  0
  4  6  1  0
  3  7  1  0
  6  7  2  0
  5  8  2  0
  6 10  1  0
  9 10  1  0
  9 11  1  0
  5 12  1  0
  8 13  1  0
 11 14  1  0
  9 15  1  0
  8 16  1  0
 14 17  1  0
 14 18  2  0
 13 19  1  0
 12 20  2  0
 16 21  2  0
 20 21  1  0
 17 22  2  0
 18 23  1  0
 22 24  1  0
 23 24  2  0
M  END
> <chembl_id>
CHEMBL555067

> <chembl_pref_name>
None

$$$$

     RDKit          2D

 29 33  0  0  0  0  0  0  0  0999 V2000
    6.0500   -2.9250    0.0000 C   0  0  0  0  0  0  0  0  0  0  0  0
    6.8542   -3.1042    0.0000 N   0  0  0  0  0  0  0  0  0  0  0  0
    6.1792   -4.2542    0.0000 N   0  0  0  0  0  0  0  0  0  0  0  0
    2.9167   -0.8625    0.0000 N   0  0  0  0  0  0  0  0  0  0  0  0
    5.6292   -3.6375    0.0000 C   0  0  0  0  0  0  0  0  0  0  0  0
    6.9375   -3.9250    0.0000 C   0  0  0  0  0  0  0  0  0  0  0  0
    4.2167   -0.5792    0.0000 C   0  0  0  0  0  0  0  0  0  0  0  0
    3.6667   -1.1917    0.0000 C   0  0  0  0  0  0  0  0  0  0  0  0
    3.0000   -0.0417    0.0000 C   0  0  0  0  0  0  0  0  0  0  0  0
    5.2292   -2.8375    0.0000 C   0  0  0  0  0  0  0  0  0  0  0  0
    6.5375   -2.2542    0.0000 C   0  0  0  0  0  0  0  0  0  0  0  0
    5.3792   -1.4167    0.0000 N   0  0  0  0  0  0  0  0  0  0  0  0
    3.8042    0.1333    0.0000 C   0  0  0  0  0  0  0  0  0  0  0  0
    7.4667   -2.5542    0.0000 C   0  0  0  0  0  0  0  0  0  0  0  0
    2.2042   -1.2792    0.0000 C   0  0  0  0  0  0  0  0  0  0  0  0
    5.0417   -0.6667    0.0000 C   0  0  0  0  0  0  0  0  0  0  0  0
    4.8125   -3.7167    0.0000 O   0  0  0  0  0  0  0  0  0  0  0  0
    4.8917   -2.0875    0.0000 C   0  0  0  0  0  0  0  0  0  0  0  0
    6.2000   -1.5000    0.0000 C   0  0  0  0  0  0  0  0  0  0  0  0
    8.2542   -2.8167    0.0000 C   0  0  0  0  0  0  0  0  0  0  0  0
    7.3042   -1.7500    0.0000 C   0  0  0  0  0  0  0  0  0  0  0  0
    1.4917   -0.8667    0.0000 C   0  0  0  0  0  0  0  0  0  0  0  0
    2.2042   -2.1042    0.0000 C   0  0  0  0  0  0  0  0  0  0  0  0
    0.7792   -1.2792    0.0000 C   0  0  0  0  0  0  0  0  0  0  0  0
    8.8667   -2.2667    0.0000 C   0  0  0  0  0  0  0  0  0  0  0  0
    7.9167   -1.2000    0.0000 C   0  0  0  0  0  0  0  0  0  0  0  0
    1.4917   -2.5167    0.0000 C   0  0  0  0  0  0  0  0  0  0  0  0
    0.7792   -2.1042    0.0000 C   0  0  0  0  0  0  0  0  0  0  0  0
    8.7042   -1.4542    0.0000 C   0  0  0  0  0  0  0  0  0  0  0  0
  2  1  1  0
  3  5  1  0
  4  8  1  0
  5  1  1  0
  6  2  1  0
  7 16  1  0
  8  7  2  0
  9 13  2  0
 10  1  1  0
 11  1  1  0
 12 19  1  0
 13  7  1  0
 14  2  1  0
 15  4  1  0
 16 12  1  0
 17  5  2  0
 18 10  1  0
 19 11  1  0
 20 14  2  0
 21 14  1  0
 22 15  2  0
 23 15  1  0
 24 22  1  0
 25 20  1  0
 26 21  2  0
 27 23  2  0
 28 27  1  0
 29 26  1  0
 18 12  1  0
  6  3  1  0
 29 25  2  0
  4  9  1  0
 28 24  2  0
M  END
> <chembl_id>
CHEMBL356542

> <chembl_pref_name>
None

$$$$

     RDKit          2D

 28 28  0  0  0  0  0  0  0  0999 V2000
   13.8916   -2.0614    0.0000 Cl  0  0  0  0  0  0  0  0  0  0  0  0
    2.5987   -1.5004    0.0000 C   0  0  0  0  0  0  0  0  0  0  0  0
    1.2990   -0.7500    0.0000 C   0  0  0  0  0  0  0  0  0  0  0  0
    3.9511   -0.8815    0.0000 N   0  0  0  0  0  0  0  0  0  0  0  0
    2.7343   -2.9815    0.0000 N   0  0  0  0  0  0  0  0  0  0  0  0
    1.2990    0.7500    0.0000 C   0  0  0  0  0  0  0  0  0  0  0  0
    4.2010   -3.2956    0.0000 C   0  0  0  0  0  0  0  0  0  0  0  0
    0.0000    1.5000    0.0000 C   0  0  0  0  0  0  0  0  0  0  0  0
    4.9531   -1.9978    0.0000 C   0  0  0  0  0  0  0  0  0  0  0  0
   -1.2990    0.7500    0.0000 C   0  0  0  0  0  0  0  0  0  0  0  0
    0.0000   -1.5000    0.0000 C   0  0  0  0  0  0  0  0  0  0  0  0
   -1.2990   -0.7500    0.0000 C   0  0  0  0  0  0  0  0  0  0  0  0
    6.3036   -4.8212    0.0000 N   0  0  0  0  0  0  0  0  0  0  0  0
    4.8111   -4.6641    0.0000 C   0  0  0  0  0  0  0  0  0  0  0  0
    6.9148   -6.1919    0.0000 C   0  0  0  0  0  0  0  0  0  0  0  0
    2.5972    1.5031    0.0000 O   0  0  0  0  0  0  0  0  0  0  0  0
   -0.0031    3.0008    0.0000 O   0  0  0  0  0  0  0  0  0  0  0  0
   -2.3383   -1.3500    0.0000 Br  0  0  0  0  0  0  0  0  0  0  0  0
    8.4073   -6.3490    0.0000 C   0  0  0  0  0  0  0  0  0  0  0  0
    7.0088   -3.8502    0.0000 C   0  0  0  0  0  0  0  0  0  0  0  0
    2.5955    2.7031    0.0000 C   0  0  0  0  0  0  0  0  0  0  0  0
   -1.0432    3.5993    0.0000 C   0  0  0  0  0  0  0  0  0  0  0  0
    9.0201   -7.7182    0.0000 C   0  0  0  0  0  0  0  0  0  0  0  0
    9.2868   -5.1338    0.0000 C   0  0  0  0  0  0  0  0  0  0  0  0
   10.7789   -5.2878    0.0000 C   0  0  0  0  0  0  0  0  0  0  0  0
   10.5122   -7.8721    0.0000 C   0  0  0  0  0  0  0  0  0  0  0  0
   11.3916   -6.6569    0.0000 C   0  0  0  0  0  0  0  0  0  0  0  0
   16.3916   -2.0614    0.0000 Cl  0  0  0  0  0  0  0  0  0  0  0  0
  2  3  1  0
  2  4  1  0
  2  5  2  0
  3  6  2  0
  5  7  1  0
  6  8  1  0
  4  9  1  0
  7  9  2  0
  8 10  2  0
  3 11  1  0
 10 12  1  0
 11 12  2  0
  7 14  1  0
 13 14  1  0
 13 15  1  0
  6 16  1  0
  8 17  1  0
 12 18  1  0
 15 19  1  0
 13 20  1  0
 16 21  1  0
 17 22  1  0
 19 23  1  0
 19 24  2  0
 24 25  1  0
 23 26  2  0
 25 27  2  0
 26 27  1  0
M  END
> <chembl_id>
CHEMBL538503

> <chembl_pref_name>
None

$$$$

     RDKit          2D

 24 24  0  0  0  0  0  0  0  0999 V2000
   13.8916   -3.1859    0.0000 Cl  0  0  0  0  0  0  0  0  0  0  0  0
    2.5987   -1.5004    0.0000 C   0  0  0  0  0  0  0  0  0  0  0  0
    3.9511   -0.8815    0.0000 N   0  0  0  0  0  0  0  0  0  0  0  0
    2.7343   -2.9815    0.0000 N   0  0  0  0  0  0  0  0  0  0  0  0
    4.2010   -3.2956    0.0000 C   0  0  0  0  0  0  0  0  0  0  0  0
    4.9531   -1.9978    0.0000 C   0  0  0  0  0  0  0  0  0  0  0  0
    1.2990   -0.7500    0.0000 C   0  0  0  0  0  0  0  0  0  0  0  0
    6.3036   -4.8212    0.0000 N   0  0  0  0  0  0  0  0  0  0  0  0
    4.8111   -4.6641    0.0000 C   0  0  0  0  0  0  0  0  0  0  0  0
    1.2990    0.7500    0.0000 C   0  0  0  0  0  0  0  0  0  0  0  0
    0.0000   -1.5000    0.0000 C   0  0  0  0  0  0  0  0  0  0  0  0
    6.9148   -6.1919    0.0000 C   0  0  0  0  0  0  0  0  0  0  0  0
   -1.2990    0.7500    0.0000 C   0  0  0  0  0  0  0  0  0  0  0  0
   -1.2990   -0.7500    0.0000 C   0  0  0  0  0  0  0  0  0  0  0  0
    0.0000    1.5000    0.0000 C   0  0  0  0  0  0  0  0  0  0  0  0
   -2.3383    1.3500    0.0000 F   0  0  0  0  0  0  0  0  0  0  0  0
    8.4073   -6.3490    0.0000 C   0  0  0  0  0  0  0  0  0  0  0  0
    7.0088   -3.8502    0.0000 C   0  0  0  0  0  0  0  0  0  0  0  0
    9.0201   -7.7182    0.0000 C   0  0  0  0  0  0  0  0  0  0  0  0
    9.2868   -5.1338    0.0000 C   0  0  0  0  0  0  0  0  0  0  0  0
   10.7789   -5.2878    0.0000 C   0  0  0  0  0  0  0  0  0  0  0  0
   10.5122   -7.8721    0.0000 C   0  0  0  0  0  0  0  0  0  0  0  0
   11.3916   -6.6569    0.0000 C   0  0  0  0  0  0  0  0  0  0  0  0
   16.3916   -3.1859    0.0000 Cl  0  0  0  0  0  0  0  0  0  0  0  0
  2  3  1  0
  2  4  2  0
  4  5  1  0
  3  6  1  0
  5  6  2  0
  2  7  1  0
  5  9  1  0
  8  9  1  0
  7 10  2  0
  7 11  1  0
  8 12  1  0
 11 14  2  0
 13 14  1  0
 10 15  1  0
 13 15  2  0
 13 16  1  0
 12 17  1  0
  8 18  1  0
 17 19  1  0
 17 20  2  0
 20 21  1  0
 19 22  2  0
 21 23  2  0
 22 23  1  0
M  END
> <chembl_id>
CHEMBL555009

> <chembl_pref_name>
None

$$$$

     RDKit          2D

 26 28  0  0  0  0  0  0  0  0999 V2000
   -5.4257  -14.1292    0.0000 C   0  0  0  0  0  0  0  0  0  0  0  0
   -3.9912  -14.9406    0.0000 N   0  0  0  0  0  0  0  0  0  0  0  0
   -5.4208  -14.9455    0.0000 C   0  0  0  0  0  0  0  0  0  0  0  0
   -4.7012  -13.6994    0.0000 C   0  0  0  0  0  0  0  0  0  0  0  0
   -6.1453  -13.7139    0.0000 C   0  0  0  0  0  0  0  0  0  0  0  0
   -1.1369  -14.9310    0.0000 C   0  0  0  0  0  0  0  0  0  0  0  0
   -0.4269  -15.3367    0.0000 C   0  0  0  0  0  0  0  0  0  0  0  0
   -1.1465  -14.1002    0.0000 O   0  0  0  0  0  0  0  0  0  0  0  0
   -4.0009  -14.1147    0.0000 C   0  0  0  0  0  0  0  0  0  0  0  0
   -4.6964  -15.3559    0.0000 C   0  0  0  0  0  0  0  0  0  0  0  0
   -6.8601  -14.1196    0.0000 C   0  0  0  0  0  0  0  0  0  0  0  0
   -6.1453  -12.8880    0.0000 C   0  0  0  0  0  0  0  0  0  0  0  0
   -0.4269  -16.1626    0.0000 C   0  0  0  0  0  0  0  0  0  0  0  0
    0.2735  -14.9261    0.0000 C   0  0  0  0  0  0  0  0  0  0  0  0
   -5.4353  -13.3033    0.0000 O   0  0  0  0  0  0  0  0  0  0  0  0
    1.0076  -16.1481    0.0000 C   0  0  0  0  0  0  0  0  0  0  0  0
   -7.5652  -12.8831    0.0000 C   0  0  0  0  0  0  0  0  0  0  0  0
    0.2831  -16.5828    0.0000 C   0  0  0  0  0  0  0  0  0  0  0  0
    0.9979  -15.3367    0.0000 C   0  0  0  0  0  0  0  0  0  0  0  0
   -6.8553  -12.4726    0.0000 C   0  0  0  0  0  0  0  0  0  0  0  0
   -7.5701  -13.7139    0.0000 C   0  0  0  0  0  0  0  0  0  0  0  0
    1.7320  -16.5489    0.0000 F   0  0  0  0  0  0  0  0  0  0  0  0
   -8.2946  -12.4678    0.0000 Cl  0  0  0  0  0  0  0  0  0  0  0  0
   -3.2668  -15.3512    0.0000 C   0  0  0  0  0  0  0  0  0  0  0  0
   -2.5664  -14.9310    0.0000 C   0  0  0  0  0  0  0  0  0  0  0  0
   -1.8468  -15.3367    0.0000 C   0  0  0  0  0  0  0  0  0  0  0  0
  2  9  1  0
  3  1  1  0
  4  1  1  0
  5  1  1  0
  6 26  1  0
  7  6  1  0
  8  6  2  0
  9  4  1  0
 10  3  1  0
 11  5  1  0
 12  5  2  0
 13  7  2  0
 14  7  1  0
 15  1  1  0
 16 19  1  0
 17 20  2  0
 18 13  1  0
 19 14  2  0
 20 12  1  0
 21 11  2  0
 22 16  1  0
 23 17  1  0
 24  2  1  0
 25 24  1  0
 26 25  1  0
 10  2  1  0
 21 17  1  0
 18 16  2  0
M  END
> <chembl_id>
CHEMBL54

> <chembl_pref_name>
HALOPERIDOL

$$$$

     RDKit          2D

 22 23  0  0  1  0  0  0  0  0999 V2000
    2.1167   -0.3625    0.0000 C   0  0  0  0  0  0  0  0  0  0  0  0
    1.0167   -1.0042    0.0000 C   0  0  0  0  0  0  0  0  0  0  0  0
    2.1167    0.9208    0.0000 C   0  0  0  0  0  0  0  0  0  0  0  0
   -3.3458   -1.0375    0.0000 N   0  0  0  0  0  0  0  0  0  0  0  0
   -0.0958   -0.3625    0.0000 N   0  0  0  0  0  0  0  0  0  0  0  0
    3.2292   -1.0042    0.0000 C   0  0  0  0  0  0  0  0  0  0  0  0
    3.2292    1.5583    0.0000 C   0  0  0  0  0  0  0  0  0  0  0  0
   -2.3208   -0.3667    0.0000 C   0  0  0  0  0  0  0  0  0  0  0  0
    1.0167   -2.2875    0.0000 O   0  0  0  0  0  0  0  0  0  0  0  0
   -1.2125   -1.0125    0.0000 C   0  0  0  0  0  0  0  0  0  0  0  0
    4.3417   -0.3625    0.0000 C   0  0  0  0  0  0  0  0  0  0  0  0
    4.3417    0.9208    0.0000 C   0  0  0  0  0  0  0  0  0  0  0  0
    1.0167    1.5583    0.0000 O   0  0  0  0  0  0  0  0  0  0  0  0
    3.2292    2.8333    0.0000 Br  0  0  0  0  0  0  0  0  0  0  0  0
   -4.3458   -0.3167    0.0000 C   0  0  0  0  0  0  0  0  0  0  0  0
    3.2292   -2.2875    0.0000 O   0  0  0  0  0  0  0  0  0  0  0  0
   -3.3750   -2.3167    0.0000 C   0  0  0  0  0  0  0  0  0  0  0  0
   -4.0208    0.9458    0.0000 C   0  0  0  0  0  0  0  0  0  0  0  0
   -2.7000    0.9000    0.0000 C   0  0  0  0  0  0  0  0  0  0  0  0
    1.0167    2.8333    0.0000 C   0  0  0  0  0  0  0  0  0  0  0  0
    4.3375   -2.9250    0.0000 C   0  0  0  0  0  0  0  0  0  0  0  0
   -2.2875   -2.9792    0.0000 C   0  0  0  0  0  0  0  0  0  0  0  0
  2  1  1  0
  3  1  1  0
  4  8  1  0
  5  2  1  0
  6  1  2  0
  7  3  2  0
  8 10  1  1
  9  2  2  0
 10  5  1  0
 11  6  1  0
 12 11  2  0
 13  3  1  0
 14  7  1  0
 15  4  1  0
 16  6  1  0
 17  4  1  0
 18 19  1  0
 19  8  1  0
 20 13  1  0
 21 16  1  0
 22 17  1  0
  7 12  1  0
 15 18  1  0
M  END
> <chembl_id>
CHEMBL22242

> <chembl_pref_name>
REMOXIPRIDE

$$$$
